46
 g-Tensor orientation as XYZ file; He=chosen origin Ne=g1 Ar=g2 Kr=g3
Cu      35.340000000     34.463000000     21.177000000
N       33.846000000     34.096000000     22.475000000
C       32.628000000     34.654000000     22.287000000
N       31.735000000     34.407000000     23.307000000
C       32.410000000     33.713000000     24.240000000
C       33.704000000     33.490000000     23.759000000
H       34.516000000     32.998000000     24.275000000
C       31.887000000     33.507000000     25.685000000
H       32.758000000     33.324000000     26.314000000
H       31.479000000     34.445000000     26.061000000
H       30.855000000     34.898000000     23.373000000
H       32.407000000     35.221000000     21.395000000
N       36.813000000     34.719000000     19.633000000
C       37.953000000     35.222000000     20.408000000
H       38.594000000     36.011000000     20.015000000
C       37.447000000     35.689000000     21.727000000
O       36.318000000     36.064000000     21.874000000
O       38.254000000     35.766000000     22.673000000
H       38.544000000     34.327000000     20.607000000
C       36.880000000     33.450000000     18.994000000
C       35.607000000     32.706000000     19.450000000
O       35.556000000     31.562000000     19.008000000
O       34.645000000     33.365000000     19.793000000
H       36.919000000     33.500000000     17.906000000
H       37.780000000     32.965000000     19.371000000
C       36.328000000     35.687000000     18.650000000
H       37.082000000     36.473000000     18.621000000
H       36.036000000     35.153000000     17.746000000
C       35.102000000     36.397000000     19.183000000
O       34.580000000     37.285000000     18.521000000
O       34.622000000     36.018000000     20.196000000
N       36.293000000     32.772000000     22.185000000
C       37.480000000     32.758000000     22.880000000
N       37.681000000     31.489000000     23.368000000
C       36.611000000     30.676000000     22.952000000
C       35.749000000     31.504000000     22.254000000
H       34.878000000     31.178000000     21.704000000
C       36.634000000     29.141000000     23.103000000
H       37.571000000     28.816000000     22.650000000
H       36.553000000     28.918000000     24.167000000
H       38.473000000     31.137000000     23.888000000
H       38.241000000     33.515000000     23.001000000
He      35.482684372     33.956047127     21.461064985
Ne      36.157641085     33.895938120     21.047683191
Ar      35.249092807     34.552949412     20.992869718
Kr      35.828997210     34.475815090     21.950935222
