46
 g-Tensor orientation as XYZ file; He=chosen origin Ne=g1 Ar=g2 Kr=g3
Cu      37.372000000     37.554000000     31.064000000
N       36.634000000     35.773000000     30.415000000
C       37.316000000     34.600000000     30.538000000
N       36.565000000     33.556000000     30.209000000
C       35.302000000     33.969000000     29.835000000
C       35.366000000     35.358000000     29.943000000
H       34.573000000     36.069000000     29.768000000
C       34.088000000     33.123000000     29.244000000
H       33.335000000     33.907000000     29.333000000
H       34.384000000     32.708000000     28.280000000
H       36.991000000     32.650000000     30.071000000
H       38.321000000     34.511000000     30.922000000
N       38.349000000     39.386000000     31.641000000
C       37.222000000     40.102000000     32.180000000
H       37.222000000     41.158000000     31.911000000
C       35.931000000     39.511000000     31.618000000
O       35.976000000     39.159000000     30.433000000
O       34.873000000     40.031000000     32.053000000
H       37.200000000     40.051000000     33.269000000
C       39.334000000     38.745000000     32.577000000
C       39.548000000     37.250000000     32.342000000
O       40.436000000     36.554000000     32.948000000
O       39.100000000     36.709000000     31.301000000
H       40.325000000     39.172000000     32.422000000
H       39.053000000     38.874000000     33.622000000
C       38.896000000     40.007000000     30.445000000
H       38.184000000     40.808000000     30.249000000
H       39.926000000     40.346000000     30.555000000
C       38.782000000     39.068000000     29.265000000
O       39.105000000     39.514000000     28.172000000
O       38.257000000     37.899000000     29.467000000
N       36.501000000     37.060000000     32.888000000
C       35.249000000     36.630000000     32.949000000
N       34.866000000     36.095000000     34.113000000
C       35.962000000     36.247000000     34.984000000
C       36.955000000     36.871000000     34.221000000
H       37.966000000     37.119000000     34.510000000
C       36.090000000     35.642000000     36.415000000
H       36.859000000     36.243000000     36.900000000
H       35.153000000     35.730000000     36.964000000
H       33.985000000     35.621000000     34.250000000
H       34.493000000     36.637000000     32.178000000
He      37.131976937     37.253366972     31.526113707
Ne      37.542573924     37.837495813     31.872910154
Ar      37.715661092     36.742694870     31.695202369
Kr      37.479521301     37.420912984     30.832423997
