46
 g-Tensor orientation as XYZ file; He=chosen origin Ne=g1 Ar=g2 Kr=g3
Cu      37.137000000     30.699000000     21.483000000
N       35.270000000     30.647000000     22.520000000
C       34.421000000     29.614000000     22.193000000
N       33.456000000     29.451000000     23.107000000
C       33.558000000     30.499000000     24.012000000
C       34.720000000     31.215000000     23.651000000
H       35.235000000     31.950000000     24.251000000
C       32.536000000     30.842000000     25.126000000
H       33.057000000     31.542000000     25.779000000
H       31.628000000     31.214000000     24.651000000
H       32.787000000     28.694000000     23.110000000
H       34.601000000     28.902000000     21.400000000
N       39.033000000     30.611000000     20.495000000
C       39.760000000     31.730000000     20.969000000
H       40.371000000     32.186000000     20.190000000
C       38.945000000     32.802000000     21.468000000
O       37.730000000     32.769000000     21.302000000
O       39.432000000     33.886000000     21.419000000
H       40.414000000     31.467000000     21.800000000
C       39.577000000     29.271000000     20.907000000
C       38.368000000     28.326000000     21.135000000
O       38.660000000     27.168000000     21.524000000
O       37.239000000     28.746000000     20.987000000
H       40.123000000     28.778000000     20.104000000
H       40.195000000     29.195000000     21.802000000
C       38.757000000     30.649000000     19.054000000
H       39.344000000     31.437000000     18.583000000
H       38.965000000     29.698000000     18.564000000
C       37.351000000     30.971000000     18.807000000
O       37.105000000     31.339000000     17.713000000
O       36.480000000     30.874000000     19.750000000
N       37.950000000     30.510000000     23.529000000
C       38.292000000     31.476000000     24.411000000
N       38.688000000     30.949000000     25.546000000
C       38.662000000     29.577000000     25.547000000
C       38.221000000     29.272000000     24.202000000
H       37.979000000     28.304000000     23.788000000
C       39.273000000     28.689000000     26.595000000
H       40.357000000     28.775000000     26.521000000
H       39.031000000     29.039000000     27.599000000
H       38.937000000     31.517000000     26.343000000
H       38.213000000     32.548000000     24.306000000
He      37.346317455     30.515315557     22.097538671
Ne      37.631875565     30.441303195     22.834453117
Ar      37.308023429     29.725104124     22.033012530
Kr      38.085948645     30.502977589     21.809688638
