46
 g-Tensor orientation as XYZ file; He=chosen origin Ne=g1 Ar=g2 Kr=g3
Cu      14.458000000     31.124000000     27.533000000
N       15.941000000     31.856000000     26.387000000
C       16.004000000     31.818000000     25.026000000
N       17.134000000     32.261000000     24.616000000
C       17.937000000     32.627000000     25.662000000
C       17.111000000     32.468000000     26.819000000
H       17.335000000     32.553000000     27.872000000
C       19.388000000     33.169000000     25.564000000
H       19.760000000     33.029000000     24.549000000
H       19.344000000     34.232000000     25.803000000
H       17.513000000     32.077000000     23.697000000
H       15.235000000     31.402000000     24.392000000
N       12.604000000     30.798000000     28.861000000
C       12.256000000     29.452000000     28.398000000
H       11.210000000     29.467000000     28.090000000
C       13.069000000     29.254000000     27.132000000
O       13.374000000     30.258000000     26.470000000
O       13.308000000     28.045000000     26.792000000
H       12.504000000     28.708000000     29.154000000
C       13.222000000     31.107000000     30.141000000
C       14.625000000     31.470000000     29.972000000
O       15.170000000     31.508000000     31.082000000
O       14.851000000     32.234000000     29.023000000
H       12.679000000     31.926000000     30.614000000
H       13.165000000     30.236000000     30.794000000
C       11.650000000     31.756000000     28.470000000
H       10.723000000     31.233000000     28.235000000
H       11.455000000     32.452000000     29.285000000
C       12.239000000     32.610000000     27.435000000
O       11.512000000     33.304000000     26.733000000
O       13.461000000     32.610000000     27.327000000
N       15.982000000     29.546000000     28.073000000
C       16.760000000     29.034000000     27.090000000
N       17.597000000     28.124000000     27.641000000
C       17.406000000     28.065000000     29.003000000
C       16.440000000     29.010000000     29.254000000
H       16.096000000     29.301000000     30.236000000
C       18.118000000     27.012000000     29.838000000
H       18.737000000     26.439000000     29.148000000
H       17.346000000     26.303000000     30.136000000
H       18.201000000     27.548000000     27.071000000
H       16.743000000     29.277000000     26.037000000
He      14.954539969     30.825395092     27.698485499
Ne      14.491871078     30.489790680     28.249277058
Ar      15.436024316     31.096703454     28.268247521
Kr      14.525384418     31.491597476     27.743917454
