46
 g-Tensor orientation as XYZ file; He=chosen origin Ne=g1 Ar=g2 Kr=g3
Cu      18.225000000     37.090000000     35.840000000
N       19.435000000     37.887000000     34.436000000
C       19.035000000     38.747000000     33.540000000
N       19.871000000     38.955000000     32.568000000
C       20.985000000     38.095000000     32.772000000
C       20.694000000     37.465000000     34.038000000
H       21.184000000     36.624000000     34.507000000
C       22.106000000     38.066000000     31.797000000
H       21.594000000     38.156000000     30.838000000
H       22.781000000     38.901000000     31.985000000
H       19.793000000     39.702000000     31.893000000
H       18.096000000     39.268000000     33.655000000
N       17.103000000     36.552000000     37.622000000
C       15.840000000     35.978000000     37.093000000
H       14.962000000     36.071000000     37.733000000
C       15.555000000     36.756000000     35.840000000
O       16.361000000     37.653000000     35.573000000
O       14.627000000     36.448000000     35.080000000
H       15.909000000     34.936000000     36.782000000
C       17.994000000     35.562000000     38.248000000
C       19.339000000     35.583000000     37.471000000
O       20.049000000     34.594000000     37.758000000
O       19.752000000     36.615000000     36.885000000
H       18.219000000     35.957000000     39.239000000
H       17.650000000     34.528000000     38.257000000
C       16.985000000     37.742000000     38.458000000
H       15.936000000     37.982000000     38.630000000
H       17.655000000     37.650000000     39.313000000
C       17.506000000     38.915000000     37.689000000
O       17.026000000     40.058000000     37.797000000
O       18.502000000     38.638000000     36.955000000
N       18.036000000     35.357000000     34.665000000
C       17.255000000     35.417000000     33.563000000
N       17.332000000     34.298000000     32.815000000
C       18.294000000     33.434000000     33.381000000
C       18.674000000     34.162000000     34.588000000
H       19.395000000     33.960000000     35.366000000
C       18.769000000     32.132000000     32.827000000
H       19.178000000     32.300000000     31.831000000
H       17.912000000     31.459000000     32.805000000
H       16.930000000     34.008000000     31.935000000
H       16.620000000     36.272000000     33.384000000
He      18.250222880     36.680338532     35.440700567
Ne      18.316745566     37.325305436     35.898583291
Ar      18.969093593     36.439365335     35.675692017
Kr      18.580168019     37.075324324     34.836393862
