46
 g-Tensor orientation as XYZ file; He=chosen origin Ne=g1 Ar=g2 Kr=g3
Cu      23.237000000     20.314000000     39.059000000
N       23.679000000     22.208000000     39.214000000
C       23.099000000     22.839000000     40.279000000
N       23.568000000     24.102000000     40.320000000
C       24.328000000     24.364000000     39.250000000
C       24.382000000     23.130000000     38.489000000
H       24.832000000     22.904000000     37.534000000
C       25.002000000     25.691000000     38.947000000
H       24.370000000     26.555000000     39.152000000
H       25.713000000     25.762000000     39.770000000
H       23.280000000     24.758000000     41.032000000
H       22.431000000     22.350000000     40.973000000
N       23.018000000     18.037000000     39.005000000
C       21.630000000     17.886000000     38.647000000
H       21.104000000     17.186000000     39.296000000
C       20.979000000     19.186000000     38.864000000
O       21.468000000     19.895000000     39.824000000
O       19.765000000     19.197000000     38.599000000
H       21.555000000     17.466000000     37.644000000
C       24.062000000     17.737000000     38.019000000
C       24.899000000     18.989000000     37.791000000
O       25.858000000     18.909000000     37.002000000
O       24.953000000     19.819000000     38.678000000
H       24.799000000     17.018000000     38.375000000
H       23.521000000     17.462000000     37.114000000
C       23.420000000     17.516000000     40.362000000
H       22.637000000     16.932000000     40.846000000
H       24.232000000     16.789000000     40.383000000
C       23.810000000     18.789000000     41.194000000
O       24.558000000     18.609000000     42.205000000
O       23.410000000     19.897000000     40.836000000
N       22.637000000     20.987000000     36.967000000
C       21.486000000     21.685000000     36.882000000
N       21.271000000     22.037000000     35.646000000
C       22.296000000     21.655000000     34.800000000
C       23.185000000     21.005000000     35.657000000
H       24.189000000     20.664000000     35.451000000
C       22.411000000     22.208000000     33.356000000
H       22.233000000     23.283000000     33.357000000
H       21.681000000     21.683000000     32.740000000
H       20.641000000     22.769000000     35.350000000
H       20.892000000     21.858000000     37.767000000
He      23.171647573     20.566292304     38.545118298
Ne      23.951668313     20.482887098     38.423976303
Ar      23.084033986     20.827927291     37.800850095
Kr      23.289781694     21.311043853     38.793016714
